14
linker_cif
C         19.14200       17.23080       19.43200
C         20.01310       19.91100       24.41180
C         19.35390       17.90780       20.70390
C         19.80190       19.24700       23.13390
C         20.10400       19.10000       20.73910
C         20.33000       19.76180       21.93490
C         19.03290       18.06600       23.09620
C         18.81210       17.40080       21.90000
H         18.22290       16.48590       21.85980
H         20.90690       20.68490       21.97300
H         19.55210       17.74160       18.54110
H         18.61010       17.67660       24.02300
H         20.49910       19.51060       19.80810
H         19.53910       19.42850       25.28600
