146
node_cif
N          7.93500        2.45340        6.73990
N         17.53700       16.10510        6.73990
N          7.93500       16.10510        6.73990
N         17.53700        2.45340        6.73990
N          6.93090       16.09650       19.33700
N         18.54110       16.09650       19.33700
N         18.54110        2.46200       19.33700
N          6.93090        2.46200       19.33700
C          7.17600       15.55800       18.06900
C          8.09910       15.55680        8.01390
C         18.29600       15.55800       18.06900
C         17.37290       15.55680        8.01390
C          7.17600        3.00050       18.06900
C          8.09910        3.00170        8.01390
C         18.29600        3.00050       18.06900
C         17.37290        3.00170        8.01390
H          6.63190       13.58260       18.72510
C         16.46990        6.14140       11.96920
C         17.07110        4.87640       11.87420
C         13.41790        6.81770       13.31790
C         14.16190        8.04140       13.30510
C         15.57510        8.06030       13.27590
C         16.31890        6.77760       13.20190
C         17.52190        4.25440       13.05110
C          8.70200       12.41490       14.35890
C          8.10290       13.68620       14.30200
C          8.09910       13.56590        9.39010
C          8.29390       14.33310       10.55390
C          8.43710       15.72390       10.41300
C          8.33800       16.33110        9.16600
C          8.02500       14.16010        8.13880
H         18.84010        4.97590       18.72510
C          9.00210       12.41710       11.96920
C          8.40090       13.68210       11.87420
C         12.05410       11.74080       13.31790
C         11.31010       10.51710       13.30510
C          9.89690       10.49820       13.27590
C          9.15310       11.78090       13.20190
C          7.95010       14.30410       13.05110
C         16.77000        6.14360       14.35890
C         17.36910        4.87230       14.30200
C         17.37290        4.99260        9.39010
C         17.17810        4.22540       10.55390
C         17.03490        2.83460       10.41300
C         17.13400        2.22740        9.16600
C         17.44700        4.39840        8.13880
H          6.63190        4.97590       18.72510
C         16.46990       12.41710       11.96920
C         17.07110       13.68210       11.87420
C         13.41790       11.74080       13.31790
C         14.16190       10.51710       13.30510
C         15.57510       10.49820       13.27590
C         16.31890       11.78090       13.20190
C         17.52190       14.30410       13.05110
C          8.70200        6.14360       14.35890
C          8.10290        4.87230       14.30200
C          8.09910        4.99260        9.39010
C          8.29390        4.22540       10.55390
C          8.43710        2.83460       10.41300
C          8.33800        2.22740        9.16600
C          8.02500        4.39840        8.13880
H         18.84010       13.58260       18.72510
C          9.00210        6.14140       11.96920
C          8.40090        4.87640       11.87420
C         12.05410        6.81770       13.31790
C         11.31010        8.04140       13.30510
C          9.89690        8.06030       13.27590
C          9.15310        6.77760       13.20190
C          7.95010        4.25440       13.05110
C         16.77000       12.41490       14.35890
C         17.36910       13.68620       14.30200
C         17.37290       13.56590        9.39010
C         17.17810       14.33310       10.55390
C         17.03490       15.72390       10.41300
C         17.13400       16.33110        9.16600
C         17.44700       14.16010        8.13880
H          7.04910       12.52810       16.51820
H         16.58890        6.61500       15.32490
H         17.50100        6.07090        9.47410
H         16.81790        2.22520       11.29000
H         16.98600        1.15210        9.06990
H         17.62310        4.99190        7.24300
H         16.05810        6.61610       11.07900
H         13.96200        5.87410       13.32790
H         18.03010        3.29190       12.98700
C         18.23900        4.96440       16.65010
H          8.88310       11.94350       15.32490
H          7.97100       12.48760        9.47410
H          8.65410       16.33330       11.29000
H          8.48600       17.40640        9.06990
H          7.84890       13.56660        7.24300
H          9.41390       11.94240       11.07900
H         11.51000       12.68440       13.32790
H          7.44190       15.26660       12.98700
C          7.23300       13.59410       16.65010
H         18.42290        6.03040       16.51820
C          7.71800        4.20830       15.56400
C          7.91700        2.83170       15.75790
C          7.64800        2.23260       16.98600
H         17.14390       16.33150       14.94920
H         17.61110       17.38560       17.13010
C          6.98900        4.38170       17.88510
H          8.32810        2.22700       14.94920
H          7.86090        1.17290       17.13010
C         17.75400       14.35020       15.56400
C         17.55500       15.72680       15.75790
C         17.82400       16.32590       16.98600
C         18.48300       14.17680       17.88510
C          7.71800       14.35020       15.56400
C          7.91700       15.72680       15.75790
C          7.64800       16.32590       16.98600
H         17.14390        2.22700       14.94920
H         17.61110        1.17290       17.13010
C          6.98900       14.17680       17.88510
H          8.32810       16.33150       14.94920
H          7.86090       17.38560       17.13010
C         17.75400        4.20830       15.56400
C         17.55500        2.83170       15.75790
C         17.82400        2.23260       16.98600
C         18.48300        4.38170       17.88510
H          7.04910        6.03040       16.51820
H         16.58890       11.94350       15.32490
H         17.50100       12.48760        9.47410
H         16.81790       16.33330       11.29000
H         16.98600       17.40640        9.06990
H         17.62310       13.56660        7.24300
H         16.05810       11.94240       11.07900
H         13.96200       12.68440       13.32790
H         18.03010       15.26660       12.98700
C         18.23900       13.59410       16.65010
H          8.88310        6.61500       15.32490
H          7.97100        6.07090        9.47410
H          8.65410        2.22520       11.29000
H          8.48600        1.15210        9.06990
H          7.84890        4.99190        7.24300
H          9.41390        6.61610       11.07900
H         11.51000        5.87410       13.32790
H          7.44190        3.29190       12.98700
C          7.23300        4.96440       16.65010
H         18.42290       12.52810       16.51820
H          8.12610        9.27920       13.23610
H         17.34590        9.27920       13.23610
C          9.21600        9.27920       13.27090
C         12.02300        9.27920       13.31610
C         16.25600        9.27920       13.27090
C         13.44900        9.27920       13.31610
